71

Si -5.431 0.0 0.0
Si -0.0 -5.431 0.0
Si -0.0 -0.0 -5.431
Si 0.0 0.0 0.0
Si 0.0 0.0 5.431
Si 0.0 5.431 0.0
Si 5.431 0.0 0.0
Si -0.0 -2.7155 -2.7155
Si 0.0 -2.7155 2.7155
Si 0.0 2.7155 -2.7155
Si 0.0 2.7155 2.7155
Si -2.7155 -2.7155 0.0
Si -2.7155 2.7155 0.0
Si 2.7155 -2.7155 0.0
Si 2.7155 2.7155 0.0
Si -2.7155 -0.0 -2.7155
Si -2.7155 0.0 2.7155
Si 2.7155 -0.0 -2.7155
Si 2.7155 0.0 2.7155
Si -1.35775 -4.07325 -1.35775
Si -1.35775 1.35775 -1.35775
Si -1.35775 1.35775 4.07325
Si 4.07325 1.35775 -1.35775
Si -4.07325 1.35775 1.35775
Si 1.35775 -4.07325 1.35775
Si 1.35775 1.35775 -4.07325
Si 1.35775 1.35775 1.35775
Si -4.07325 -1.35775 -1.35775
Si 1.35775 -1.35775 -1.35775
Si 1.35775 -1.35775 4.07325
Si 1.35775 4.07325 -1.35775
Si -1.35775 -1.35775 -4.07325
Si -1.35775 -1.35775 1.35775
Si -1.35775 4.07325 1.35775
Si 4.07325 -1.35775 1.35775
H -6.25084 -0.81984 0.81984
H -6.25084 0.81984 -0.81984
H 0.81984 -6.25084 -0.81984
H -0.81984 -6.25084 0.81984
H 0.81984 -0.81984 -6.25084
R -0.81984 0.81984 -6.25084
H 0.81984 0.81984 6.25084
H -0.81984 -0.81984 6.25084
H -0.81984 6.25084 -0.81984
H 0.81984 6.25084 0.81984
H 6.25084 0.81984 0.81984
H 6.25084 -0.81984 -0.81984
H 0.81984 -3.53534 -3.53534
R -0.81984 -3.53534 3.53534
H -0.81984 3.53534 -3.53534
H 0.81984 3.53534 3.53534
H -3.53534 -3.53534 0.81984
H -3.53534 3.53534 -0.81984
R 3.53534 -3.53534 -0.81984
R 3.53534 3.53534 0.81984
H -3.53534 0.81984 -3.53534
H -3.53534 -0.81984 3.53534
H 3.53534 -0.81984 -3.53534
R 3.53534 0.81984 3.53534
H -2.17759 -4.89309 -2.17759
H -2.17759 2.17759 4.89309
H 4.89309 2.17759 -2.17759
R -4.89309 2.17759 2.17759
H 2.17759 -4.89309 2.17759
H 2.17759 2.17759 -4.89309
R -4.89309 -2.17759 -2.17759
H 2.17759 -2.17759 4.89309
H 2.17759 4.89309 -2.17759
H -2.17759 -2.17759 -4.89309
H -2.17759 4.89309 2.17759
H 4.89309 -2.17759 2.17759
