247

Si 7.0506609493 7.0506624365 12.4794603573
Si 7.050660355 12.4794593342 7.0506593389
Si 7.0080321954 12.5000013812 12.4999995646
Si 7.0506617275 12.5205386561 17.9493389
Si 7.0506615821 17.949341579 12.5205421505
Si 12.4794587315 7.0506630087 7.050659233
Si 12.4999996826 7.0080322803 12.4999988924
Si 12.5205435725 7.0506572582 17.9493393482
Si 12.5000010943 12.5000012361 7.0080325159
Si 12.5000002281 12.5000011333 12.5000010111
Si 12.5000003248 12.5000026922 17.9919659651
Si 12.5205407892 17.949340272 7.0506631139
Si 12.4999996945 17.9919663545 12.5000003229
Si 12.4794575817 17.9493384576 17.949339755
Si 17.9493406225 7.0506612263 12.5205409759
Si 17.9493380437 12.5205388765 7.0506616564
Si 17.9919675761 12.5000013889 12.4999992426
Si 17.9493387552 12.4794586493 17.9493382278
Si 17.9493416798 17.9493426973 12.4794570482
Si 7.022683562 9.7744323599 9.7744259253
Si 7.0626120337 9.7881135522 15.2118859315
Si 7.0626111043 15.2118860183 9.788113913
Si 7.0226847495 15.2255696566 15.225571076
Si 12.639556277 4.3236230831 9.6284807867
Si 12.3604417027 4.32362215 15.371516144
Si 12.6395596653 9.6284902368 4.3236245974
Si 12.4979026687 9.767592524 9.7675901922
Si 12.5020986042 9.7675946442 15.2324078279
Si 12.3604423151 9.6284810276 20.6763808229
Si 12.3604446574 15.3715183434 4.3236256357
Si 12.5021005023 15.2324108469 9.7675916594
Si 12.4978978788 15.2324061977 15.2324098445
Si 12.6395644465 15.3715176039 20.6763805233
Si 12.3604415114 20.6763768838 9.6284852286
Si 12.639554048 20.6763756187 15.3715184904
Si 17.9373876057 9.7881150492 9.7881133045
Si 17.977317089 9.7744270319 15.2255697072
Si 17.9773160107 15.225574759 9.7744345963
Si 17.9373891904 15.2118843459 15.2118848216
Si 4.3236284016 9.6284835963 12.6395628221
Si 4.3236328176 15.3715147813 12.3604428524
Si 9.6284778741 4.3236251465 12.639556546
Si 9.77442911 9.7744327406 7.0226815235
Si 9.7675902748 9.7675920816 12.4979007247
Si 9.788111203 9.7881142592 17.9373884508
Si 9.7881161585 15.2118889555 7.0626129707
Si 9.7675924609 15.2324085446 12.5021014321
Si 9.7744319562 15.2255701417 17.9773146255
Si 9.6284802912 20.6763750901 12.3604390869
Si 15.3715156183 4.3236241854 12.3604399604
Si 15.2118893567 9.7881155771 7.0626109925
Si 15.2324101171 9.7675913639 12.5020981036
Si 15.2255693403 9.7744274755 17.9773161655
Si 15.2255708835 15.2255716532 7.0226857393
Si 15.232408166 15.2324070797 12.4978997685
Si 15.2118869335 15.211885546 17.937391089
Si 15.3715166446 20.6763804128 12.6395582388
Si 20.6763776325 9.6284814652 12.3604400601
Si 20.6763812425 15.3715159238 12.6395567139
Si 4.3236177992 12.6395596239 9.6284830432
Si 4.3236184067 12.3604402546 15.3715173387
Si 9.7744296902 7.0226831771 9.774427406
Si 9.7881099698 7.0626128545 15.2118825592
Si 9.628484049 12.6395632246 4.3236208442
Si 9.7675922257 12.497901308 9.7675916803
Si 9.7675919905 12.5021003869 15.2324096803
Si 9.6284867018 12.3604431298 20.6763744303
Si 9.7881159338 17.9373910168 9.7881129704
Si 9.7744298111 17.977317908 15.2255706544
Si 15.2118861709 7.0626128317 9.7881129367
Si 15.2255699413 7.0226802914 15.225573133
Si 15.3715208804 12.3604412111 4.3236237181
Si 15.2324101975 12.5021000096 9.7675910271
Si 15.2324063045 12.4978993665 15.232409038
Si 15.3715154733 12.6395593339 20.6763733104
Si 15.2255727854 17.9773194233 9.7744315279
Si 15.2118840534 17.9373882421 15.2118865108
Si 20.6763722316 12.3604391609 9.6284863609
Si 20.676363868 12.6395574995 15.3715158715
Si 5.6718836198 8.4097720913 11.1455249849
Si 5.6586363741 13.8743463832 11.1256554921
Si 5.6718857776 13.8544740385 16.5902255677
Si 11.1455257201 8.4097690789 5.6718871793
Si 11.1363465253 8.3920093375 11.136345915
Si 11.1421433937 8.4048030118 16.5951974024
Si 11.1256570268 13.8743419393 5.6586342778
Si 11.1343364548 13.8656618488 11.1343359665
Si 11.1363420546 13.8636565014 16.6079900799
Si 11.1256563367 19.3413673973 11.125652478
Si 11.1455237714 19.3281160168 16.5902283961
Si 16.5951964329 8.4048000802 11.1421476084
Si 16.5784602876 8.4215424382 16.5784603124
Si 16.5902280035 13.8544739284 5.6718838151
Si 16.6079887497 13.8636556697 11.1363446229
Si 16.5952012631 13.8578578072 16.5951983528
Si 16.5902259525 19.3281149051 11.1455240131
Si 8.4215389694 8.4215397367 8.4215405168
Si 8.4048039826 8.4047988285 13.8578559799
Si 8.4047998665 13.8578548863 8.4048026481
Si 8.3920098681 13.8636573687 13.8636556274
Si 8.4097723975 13.854474267 19.3281160803
Si 8.4097707161 19.3281151062 13.8544722095
Si 13.8578536149 8.4047991121 8.4048035679
Si 13.863653478 8.3920110053 13.8636555114
Si 13.8544744443 8.409773608 19.328114441
Si 13.86365651 13.8636556337 8.3920104348
Si 13.8656645626 13.8656620632 13.8656595633
Si 13.8743448609 13.8743454633 19.3413669846
Si 13.8544743199 19.3281156395 8.4097690317
Si 13.8743450989 19.3413648295 13.8743483234
Si 19.3281117216 8.4097729358 13.8544765724
Si 19.3281183372 13.8544729976 8.4097708453
Si 19.3413645852 13.8743429915 13.874348004
Si 8.4097734726 5.6718808894 11.145525605
Si 8.4097724098 11.1455212901 5.6718881037
Si 8.3920102046 11.1363435709 11.1363423694
Si 8.4048032678 11.1421430669 16.5952019223
Si 8.4047996808 16.5951967999 11.1421419599
Si 8.4215385094 16.5784580388 16.5784586612
Si 13.8743454591 5.6586336798 11.1256595209
Si 13.8544742654 5.6718862582 16.5902280628
Si 13.8743402081 11.1256521805 5.6586325437
Si 13.8656622776 11.1343347019 11.1343375409
Si 13.8636550025 11.136342885 16.6079859101
Si 13.8544758198 16.5902252418 5.671881323
Si 13.863653839 16.6079885973 11.1363450313
Si 13.8578577998 16.5952024438 16.5951980801
Si 19.3413682278 11.1256571162 11.1256534638
Si 19.3281170352 11.1455261369 16.5902290576
Si 19.3281109419 16.5902257627 11.1455236788
Si 5.6718904085 11.1455205518 8.4097742399
Si 5.6586308815 11.1256542023 13.8743406766
Si 5.6718823449 16.5902274368 13.854473781
Si 11.1455246816 5.6718828039 8.4097738751
Si 11.1256558254 5.6586346799 13.8743449352
Si 11.136344193 11.1363427301 8.3920109031
Si 11.1343399012 11.1343340615 13.8656639353
Si 11.1256508462 11.1256542073 19.3413671763
Si 11.1421436589 16.5951977913 8.4048002589
Si 11.1363442212 16.6079895642 13.8636535406
Si 11.1455239388 16.59022762 19.3281130161
Si 16.5902283345 5.6718846615 13.8544751676
Si 16.5951983948 11.1421442041 8.4048007607
Si 16.6079879877 11.1363426284 13.8636564013
Si 16.5902289653 11.145526128 19.3281170157
Si 16.5784605642 16.5784584738 8.4215379439
Si 16.5951959625 16.5951986422 13.8578602563
R 6.1943366207 6.1943363104 13.3584237853
R 6.19433756 13.358423072 6.1943362902
R 6.1943364968 11.6415757064 18.8056623391
R 6.1943369681 18.8056623134 11.6415754491
R 13.3584248311 6.1943359657 6.1943372327
R 11.6415754337 6.1943372833 18.8056633176
R 11.6415760769 18.8056628941 6.1943353278
H 13.3584229479 18.8056635814 18.805663182
H 18.8056629728 6.1943366041 11.6415773069
R 18.8056642899 11.6415763326 6.1943377053
R 18.8056630201 13.3584249569 18.8056634622
R 18.8056622506 18.8056635505 13.3584237644
H 6.2001985946 8.9232083682 16.0767916035
R 6.2001998136 16.0767917076 8.9232069822
H 13.6061708554 3.7160172935 8.6672876338
H 11.9491961647 3.207599222 10.3325343629
H 13.0508032276 3.2076002879 14.6674658118
H 11.393829267 3.7160171944 16.3327122371
H 13.6061672016 8.6672910151 3.7160123828
H 11.9491917653 10.3325382359 3.2076046598
H 13.0508036661 10.3325348283 21.7923977231
H 11.3938324531 8.6672912029 21.2839816029
H 13.0508039309 14.6674660561 3.2075989724
R 11.3938295418 16.3327132278 3.7160186072
R 13.6061722966 16.3327137495 21.2839735772
R 11.9492030064 14.6674730281 21.7924027275
H 11.3938313388 21.2839823593 8.6672889018
H 13.0508047625 21.7923977368 10.3325328428
H 11.9491956617 21.792399378 14.6674671356
H 13.6061698768 21.2839819845 16.3327147167
H 18.799801843 8.9232066388 8.9232076779
H 18.7998009899 16.0767918944 16.076792414
R 3.7160248478 8.6672814652 13.6061760941
H 3.2075951537 10.3325269603 11.9492028173
R 3.2075942385 14.6674662489 13.0508009196
H 3.7160187089 16.332719077 11.3938217684
H 10.3325311411 3.207598112 11.94919857
H 8.6672849209 3.7160212315 13.6061720771
R 8.9232083151 8.9232089103 18.7997996886
R 8.9232083903 16.0767922592 6.200197859
H 8.6672862813 21.2839777244 11.3938272775
H 10.3325314426 21.7924036022 13.0508015203
H 16.3327160782 3.7160217434 11.3938267761
H 14.6674708642 3.2075984696 13.0507996805
R 16.0767920979 8.9232072988 6.2001987346
H 16.0767898695 16.0767903019 18.7997998816
H 14.667470169 21.7924010899 11.9492034821
H 16.3327145166 21.2839769279 13.6061748731
H 21.7923999003 10.3325319041 13.0508016189
R 21.2839792549 8.6672867655 11.3938294445
R 21.2839839302 16.332708469 13.6061679667
R 21.7923959416 14.6674641083 11.9491946817
R 3.2076049733 11.9491928975 10.3325364611
H 3.7160155361 13.6061648708 8.6672919184
H 3.7160184375 11.3938321711 16.3327089487
H 3.2076027753 13.0508030305 14.6674660657
R 8.923207736 6.200199025 16.0767924359
H 10.3325250734 11.9492070614 3.207596773
H 8.6672814311 13.6061779014 3.7160275262
H 10.3325369334 13.0508066662 21.792398202
H 8.6672899152 11.3938314022 21.283985265
H 8.9232092121 18.799801222 8.9232083378
R 16.0767925378 6.2001974383 8.923208207
H 14.6674684197 13.0508017266 3.2076000341
R 16.3327132277 11.393828757 3.7160217402
H 14.6674687482 11.9491989975 21.792404205
H 16.3327157822 13.606174406 21.2839793279
R 16.0767912358 18.7998003778 16.0767920798
H 21.7924041127 13.0507971342 10.3325294124
R 21.2839784266 11.3938236438 8.6672810671
H 21.2839831192 13.6061761812 16.332718645
R 21.7924054689 11.9491953156 14.6674655451
H 4.8220364055 7.54163452 10.2722656253
H 4.8220345874 14.727735503 17.458366262
R 10.2722663333 7.5416342716 4.8220362031
H 10.2722648291 20.1779615754 17.458364617
R 17.4423472814 7.5576520852 17.4423474568
H 17.4583654406 14.7277333632 4.8220367131
H 17.458362862 20.1779648889 10.2722675009
R 7.5576532293 7.557652558 7.557652388
R 7.541634543 14.7277333247 20.1779634755
H 7.5416349695 20.1779629162 14.727732663
R 14.7277342018 7.5416349873 20.1779640186
H 14.7277337477 20.1779623433 7.5416355642
H 20.1779640503 7.5416352739 14.7277351298
H 20.1779639638 14.7277342109 7.5416354701
H 7.5416353595 4.8220375728 10.2722662903
H 7.5416360757 10.2722656032 4.8220345482
R 7.5576517865 17.4423475214 17.4423481019
H 14.7277333985 4.822036448 17.4583644457
R 14.7277348557 17.4583643924 4.8220368703
R 20.1779618891 10.2722670294 17.4583643412
R 20.1779650627 17.458366589 10.2722657076
H 4.8220355619 10.2722646348 7.5416331431
R 4.8220369342 17.4583643299 14.7277318388
H 10.2722663108 4.8220363025 7.5416351528
R 10.2722649495 17.4583653427 20.1779648142
H 17.4583646628 4.8220361605 14.7277349618
R 17.4583646455 10.2722665866 20.177963232
H 17.4423469632 17.4423474952 7.5576536122
