26

Si         0.00000        0.00000        0.00000
Si         0.00000        5.43100        0.00000
Si         0.00000        2.71550       -2.71550
Si         0.00000        2.71550        2.71550
Si        -2.71550        2.71550        0.00000
Si         2.71550        2.71550        0.00000
Si        -1.35775        1.35775       -1.35775
Si         1.35775        1.35775        1.35775
Si         1.35775        4.07325       -1.35775
Si        -1.35775        4.07325        1.35775
H          0.81984       -0.81984       -0.81984
H         -0.81984       -0.81984        0.81984
H         -0.81984        6.25084       -0.81984
H          0.81984        6.25084        0.81984
H         -0.81984        3.53534       -3.53534
H          0.81984        1.89566       -3.53534
H          0.81984        3.53534        3.53534
H         -0.81984        1.89566        3.53534
H         -3.53534        1.89566        0.81984
H         -3.53534        3.53534       -0.81984
H          3.53534        3.53534        0.81984
H          3.53534        1.89566       -0.81984
H         -2.17759        0.53791       -2.17759
H          2.17759        0.53791        2.17759
H          2.17759        4.89309       -2.17759
H         -2.17759        4.89309        2.17759
