71
New structure
Si   -5.431000    0.000000    0.000000
Si   -0.000000   -5.431000    0.000000
Si   -0.000000   -0.000000   -5.431000
Si    0.000000    0.000000    0.000000
Si    0.000000    0.000000    5.431000
Si    0.000000    5.431000    0.000000
Si    5.431000    0.000000    0.000000
Si   -5.431000   -2.715500   -2.715500
Si   -5.431000   -2.715500    2.715500
Si   -5.431000    2.715500   -2.715500
Si   -5.431000    2.715500    2.715500
Si   -0.000000   -2.715500   -2.715500
Si    0.000000   -2.715500    2.715500
Si    0.000000    2.715500   -2.715500
Si    0.000000    2.715500    2.715500
Si    5.431000   -2.715500   -2.715500
Si    5.431000   -2.715500    2.715500
Si    5.431000    2.715500   -2.715500
Si    5.431000    2.715500    2.715500
Si   -2.715500   -2.715500   -5.431000
Si   -2.715500   -2.715500    0.000000
Si   -2.715500   -2.715500    5.431000
Si   -2.715500    2.715500   -5.431000
Si   -2.715500    2.715500    0.000000
Si   -2.715500    2.715500    5.431000
Si    2.715500   -2.715500   -5.431000
Si    2.715500   -2.715500    0.000000
Si    2.715500   -2.715500    5.431000
Si    2.715500    2.715500   -5.431000
Si    2.715500    2.715500    0.000000
Si    2.715500    2.715500    5.431000
Si   -2.715500   -5.431000   -2.715500
Si   -2.715500   -5.431000    2.715500
Si   -2.715500   -0.000000   -2.715500
Si   -2.715500    0.000000    2.715500
Si   -2.715500    5.431000   -2.715500
Si   -2.715500    5.431000    2.715500
Si    2.715500   -5.431000   -2.715500
Si    2.715500   -5.431000    2.715500
Si    2.715500   -0.000000   -2.715500
Si    2.715500    0.000000    2.715500
Si    2.715500    5.431000   -2.715500
Si    2.715500    5.431000    2.715500
Si   -1.357750   -4.073250   -1.357750
Si   -1.357750   -4.073250    4.073250
Si   -1.357750    1.357750   -1.357750
Si   -1.357750    1.357750    4.073250
Si    4.073250   -4.073250   -1.357750
Si    4.073250    1.357750   -1.357750
Si    4.073250    1.357750    4.073250
Si   -4.073250   -4.073250    1.357750
Si   -4.073250    1.357750   -4.073250
Si   -4.073250    1.357750    1.357750
Si    1.357750   -4.073250   -4.073250
Si    1.357750   -4.073250    1.357750
Si    1.357750    1.357750   -4.073250
Si    1.357750    1.357750    1.357750
Si   -4.073250   -1.357750   -1.357750
Si   -4.073250   -1.357750    4.073250
Si   -4.073250    4.073250   -1.357750
Si    1.357750   -1.357750   -1.357750
Si    1.357750   -1.357750    4.073250
Si    1.357750    4.073250   -1.357750
Si    1.357750    4.073250    4.073250
Si   -1.357750   -1.357750   -4.073250
Si   -1.357750   -1.357750    1.357750
Si   -1.357750    4.073250   -4.073250
Si   -1.357750    4.073250    1.357750
Si    4.073250   -1.357750   -4.073250
Si    4.073250   -1.357750    1.357750
Si    4.073250    4.073250    1.357750
