17

Si         0.00000        0.00000        0.00000
Si        -1.35775        1.35775       -1.35775
Si         1.35775        1.35775        1.35775
Si         1.35775       -1.35775       -1.35775
Si        -1.35775       -1.35775        1.35775
H         -0.53791        2.17759       -2.17759
H         -2.17759        2.17759       -0.53791
H         -2.17759        0.53792       -2.17759
H          2.17759        2.17759        0.53791
H          2.17759        0.53791        2.17759
H          0.53792        2.17759        2.17759
H          2.17759       -0.53791       -2.17759
H          0.53791       -2.17759       -2.17759
H          2.17759       -2.17759       -0.53792
H         -2.17759       -2.17759        0.53791
H         -2.17759       -0.53791        2.17759
H         -0.53792       -2.17759        2.17759
