155

Si        -5.43100        0.00000        0.00000
Si        -0.00000       -5.43100        0.00000
Si        -0.00000       -0.00000       -5.43100
Si         0.00000        0.00000        0.00000
Si         0.00000        0.00000        5.43100
Si         0.00000        5.43100        0.00000
Si         5.43100        0.00000        0.00000
Si        -5.43100       -2.71550       -2.71550
Si        -5.43100       -2.71550        2.71550
Si        -5.43100        2.71550       -2.71550
Si        -5.43100        2.71550        2.71550
Si        -0.00000       -2.71550       -2.71550
Si         0.00000       -2.71550        2.71550
Si         0.00000        2.71550       -2.71550
Si         0.00000        2.71550        2.71550
Si         5.43100       -2.71550       -2.71550
Si         5.43100       -2.71550        2.71550
Si         5.43100        2.71550       -2.71550
Si         5.43100        2.71550        2.71550
Si        -2.71550       -2.71550       -5.43100
Si        -2.71550       -2.71550        0.00000
Si        -2.71550       -2.71550        5.43100
Si        -2.71550        2.71550       -5.43100
Si        -2.71550        2.71550        0.00000
Si        -2.71550        2.71550        5.43100
Si         2.71550       -2.71550       -5.43100
Si         2.71550       -2.71550        0.00000
Si         2.71550       -2.71550        5.43100
Si         2.71550        2.71550       -5.43100
Si         2.71550        2.71550        0.00000
Si         2.71550        2.71550        5.43100
Si        -2.71550       -5.43100       -2.71550
Si        -2.71550       -5.43100        2.71550
Si        -2.71550       -0.00000       -2.71550
Si        -2.71550        0.00000        2.71550
Si        -2.71550        5.43100       -2.71550
Si        -2.71550        5.43100        2.71550
Si         2.71550       -5.43100       -2.71550
Si         2.71550       -5.43100        2.71550
Si         2.71550       -0.00000       -2.71550
Si         2.71550        0.00000        2.71550
Si         2.71550        5.43100       -2.71550
Si         2.71550        5.43100        2.71550
Si        -1.35775       -4.07325       -1.35775
Si        -1.35775       -4.07325        4.07325
Si        -1.35775        1.35775       -1.35775
Si        -1.35775        1.35775        4.07325
Si         4.07325       -4.07325       -1.35775
Si         4.07325        1.35775       -1.35775
Si         4.07325        1.35775        4.07325
Si        -4.07325       -4.07325        1.35775
Si        -4.07325        1.35775       -4.07325
Si        -4.07325        1.35775        1.35775
Si         1.35775       -4.07325       -4.07325
Si         1.35775       -4.07325        1.35775
Si         1.35775        1.35775       -4.07325
Si         1.35775        1.35775        1.35775
Si        -4.07325       -1.35775       -1.35775
Si        -4.07325       -1.35775        4.07325
Si        -4.07325        4.07325       -1.35775
Si         1.35775       -1.35775       -1.35775
Si         1.35775       -1.35775        4.07325
Si         1.35775        4.07325       -1.35775
Si         1.35775        4.07325        4.07325
Si        -1.35775       -1.35775       -4.07325
Si        -1.35775       -1.35775        1.35775
Si        -1.35775        4.07325       -4.07325
Si        -1.35775        4.07325        1.35775
Si         4.07325       -1.35775       -4.07325
Si         4.07325       -1.35775        1.35775
Si         4.07325        4.07325        1.35775
H         -6.25084       -0.81984        0.81984
H         -6.25084        0.81984       -0.81984
H          0.81984       -6.25084       -0.81984
H         -0.81984       -6.25084        0.81984
H          0.81984       -0.81984       -6.25084
H         -0.81984        0.81984       -6.25084
H          0.81984        0.81984        6.25084
H         -0.81984       -0.81984        6.25084
H         -0.81984        6.25084       -0.81984
H          0.81984        6.25084        0.81984
H          6.25084        0.81984        0.81984
H          6.25084       -0.81984       -0.81984
H         -6.25084       -1.89566       -3.53534
H         -6.25084       -3.53534       -1.89566
H         -4.61117       -3.53534       -3.53534
H         -6.25084       -3.53534        3.53534
H         -6.25084       -1.89566        1.89566
H         -6.25084        1.89566       -1.89566
H         -6.25084        3.53534       -3.53534
H         -6.25084        3.53534        1.89566
H         -4.61116        3.53534        3.53534
H         -6.25084        1.89567        3.53534
H          6.25084       -1.89566       -1.89566
H          6.25084       -3.53534       -3.53534
H          6.25084       -3.53534        1.89566
H          4.61116       -3.53534        3.53534
H          6.25084       -1.89567        3.53534
H          6.25084        1.89566       -3.53534
H          6.25084        3.53534       -1.89566
H          4.61117        3.53534       -3.53534
H          6.25084        3.53534        3.53534
H          6.25084        1.89566        1.89566
H         -1.89566       -3.53534       -6.25084
H         -3.53534       -1.89566       -6.25084
H         -3.53534       -3.53534       -4.61117
H         -3.53534       -3.53534        6.25084
H         -1.89566       -1.89566        6.25084
H         -3.53534        3.53534       -6.25084
H         -1.89566        1.89566       -6.25084
H         -3.53534        3.53534        4.61116
H         -1.89566        3.53534        6.25084
H         -3.53534        1.89567        6.25084
H          3.53534       -3.53534       -6.25084
H          1.89566       -1.89566       -6.25084
H          3.53534       -3.53534        4.61116
H          1.89566       -3.53534        6.25084
H          3.53534       -1.89567        6.25084
H          1.89566        3.53534       -6.25084
H          3.53534        1.89566       -6.25084
H          3.53534        3.53534       -4.61117
H          3.53534        3.53534        6.25084
H          1.89566        1.89566        6.25084
H         -1.89566       -6.25084       -3.53534
H         -3.53534       -4.61116       -3.53534
H         -3.53534       -6.25084       -1.89567
H         -1.89566       -6.25084        1.89566
H         -3.53534       -6.25084        3.53534
H         -3.53534        6.25084       -3.53534
H         -1.89566        6.25084       -1.89566
H         -3.53534        6.25084        1.89566
H         -1.89566        6.25084        3.53534
H         -3.53534        4.61117        3.53534
H          3.53534       -6.25084       -3.53534
H          1.89566       -6.25084       -1.89566
H          3.53534       -6.25084        1.89566
H          1.89566       -6.25084        3.53534
H          3.53534       -4.61117        3.53534
H          1.89566        6.25084       -3.53534
H          3.53534        4.61116       -3.53534
H          3.53534        6.25084       -1.89567
H          1.89566        6.25084        1.89566
H          3.53534        6.25084        3.53534
H         -0.53791       -4.89309        4.89309
H          4.89309       -4.89309       -0.53791
H          4.89309        0.53791        4.89309
H         -4.89309       -4.89309        0.53791
H         -4.89309        0.53791       -4.89309
H          0.53791       -4.89309       -4.89309
H         -4.89309       -0.53791        4.89309
H         -4.89309        4.89309       -0.53791
H          0.53791        4.89309        4.89309
H         -0.53791        4.89309       -4.89309
H          4.89309       -0.53791       -4.89309
H          4.89309        4.89309        0.53791
