29

C         -4.44037       -0.19711       -1.41768
C         -3.26997        0.52321       -1.64849
C         -4.41820       -1.31326       -0.58355
C          0.38083       -0.67274        0.17840
H         -3.30672        1.39138       -2.30272
H         -5.37012        0.11136       -1.88836
H         -5.34171       -1.86294       -0.41594
C         -3.22558       -1.72279        0.03098
C         -2.03404       -0.99470       -0.20103
C         -2.06230        0.13576       -1.04901
C         -0.81731       -1.39799        0.41206
C         -3.19248       -2.84143        0.87101
C         -2.00072       -3.23996        1.47810
C         -0.81127       -2.53282        1.25933
C          0.37880       -2.93567        1.87478
C          1.56465       -2.23623        1.65569
C          2.59009       -0.04337        1.24454
P          2.33225        0.75390        2.28946
H         -4.09668       -3.41478        1.06251
H         -2.01147       -4.11314        2.12694
H          0.39360       -3.79537        2.54095
H          2.47107       -2.56261        2.16433
H          3.52061        0.05451        0.68932
C         -0.88118        0.84668       -1.27675
C          0.31552        0.44638       -0.67826
H         -0.87687        1.71960       -1.92531
H          1.21360        1.02401       -0.88844
C          1.60797       -1.11682        0.78509
H          2.26115       -1.43298       -0.08017
